McPAT (version 1.3 of Feb, 2015) is computing the target processor...
 

McPAT (version 1.3 of Feb, 2015) results  (current print level is 5)
*****************************************************************************************
  Technology 22 nm
  Using Long Channel Devices When Appropriate
  Interconnect metal projection= conservative interconnect technology projection
  Core clock Rate(MHz) 1000

*****************************************************************************************
Processor: 
  Area = 154.373 mm^2
  Peak Power = 33.2874 W
  Total Leakage = 13.6835 W
  Peak Dynamic = 19.6039 W
  Subthreshold Leakage = 13.5512 W
  Gate Leakage = 0.132388 W
  Runtime Dynamic = 4.0366 W

  Total Cores: 64 cores 
  Device Type= ITRS high performance device type
    Area = 150.8 mm^2
    Peak Dynamic = 18.888 W
    Subthreshold Leakage = 13.324 W
    Gate Leakage = 0.131707 W
    Runtime Dynamic = 3.97124 W

  Total L2s: 
  Device Type= ITRS high performance device type
    Area = 3.16953 mm^2
    Peak Dynamic = 0.211273 W
    Subthreshold Leakage = 0.215135 W
    Gate Leakage = 0.000562404 W
    Runtime Dynamic = 0.00183384 W

  Total NoCs (Network/Bus): 
  Device Type= ITRS high performance device type
    Area = 0.0790939 mm^2
    Peak Dynamic = 0.102698 W
    Subthreshold Leakage = 0.0078612 W
    Gate Leakage = 7.76667e-05 W
    Runtime Dynamic = 0.0026061 W

  Total MCs: 1 Memory Controllers 
  Device Type= ITRS high performance device type
    Area = 0.325032 mm^2
    Peak Dynamic = 0.401869 W
    Subthreshold Leakage = 0.00420039 W
    Gate Leakage = 4.04871e-05 W
    Runtime Dynamic = 0.06092 W

*****************************************************************************************
Core:
      Area = 2.35624 mm^2
      Peak Dynamic = 0.295126 W
      Subthreshold Leakage = 0.208187 W
      Gate Leakage = 0.00205792 W
      Runtime Dynamic = 3.97124 W

      Instruction Fetch Unit:
        Area = 0.174005 mm^2
        Peak Dynamic = 0.145694 W
        Subthreshold Leakage = 0.0172284 W
        Gate Leakage = 0.000194945 W
        Runtime Dynamic = 1.2532 W

          Instruction Cache:
            Area = 0.15831 mm^2
            Peak Dynamic = 0.117827 W
            Subthreshold Leakage = 0.0138791 W
            Gate Leakage = 0.000120335 W
            Runtime Dynamic = 0.0104604 W

          Instruction Buffer:
            Area = 0.000815739 mm^2
            Peak Dynamic = 0.00100994 W
            Subthreshold Leakage = 8.91495e-05 W
            Gate Leakage = 7.97696e-07 W
            Runtime Dynamic = 0.000982876 W

          Instruction Decoder:
            Area = 0.000690967 mm^2
            Peak Dynamic = 0.00702518 W
            Subthreshold Leakage = 0.000281314 W
            Gate Leakage = 2.06555e-06 W
            Runtime Dynamic = 0.00683695 W

      Load Store Unit:
        Area = 0.368501 mm^2
        Peak Dynamic = 0.0483029 W
        Subthreshold Leakage = 0.0379655 W
        Gate Leakage = 0.00031353 W
        Runtime Dynamic = 0.552564 W

          Data Cache:
            Area = 0.30883 mm^2
            Peak Dynamic = 0.0350143 W
            Subthreshold Leakage = 0.0342039 W
            Gate Leakage = 0.000234186 W
            Runtime Dynamic = 0.0149589 W

          Load/Store Queue:
            Area = 0.0132729 mm^2
            Peak Dynamic = 0.00480992 W
            Subthreshold Leakage = 0.00078283 W
            Gate Leakage = 7.59635e-06 W
            Runtime Dynamic = 0.00962211 W

      Memory Management Unit:
        Area = 0.0397297 mm^2
        Peak Dynamic = 0.0202895 W
        Subthreshold Leakage = 0.00461474 W
        Runtime Dynamic = 0.904446 W

          Itlb:
            Area = 0.0127711 mm^2
            Peak Dynamic = 0.00410459 W
            Subthreshold Leakage = 0.000817966 W
            Gate Leakage = 7.32595e-06 W
            Runtime Dynamic = 0.00410547 W

          Dtlb:
            Area = 0.0127711 mm^2
            Peak Dynamic = 0.00175489 W
            Subthreshold Leakage = 0.000817966 W
            Gate Leakage = 7.32595e-06 W
            Runtime Dynamic = 0.00175531 W

      Execution Unit:
        Area = 0.746149 mm^2
        Peak Dynamic = 0.0808396 W
        Subthreshold Leakage = 0.0591203 W
        Runtime Dynamic = 1.26103 W

          Register Files:
            Area = 0.0123831 mm^2
            Peak Dynamic = 0.00631405 W
            Subthreshold Leakage = 0.000276849 W
            Gate Leakage = 2.09997e-06 W
            Runtime Dynamic = 0.00351533 W

              Integer RF:
                Area = 0.00619155 mm^2
                Peak Dynamic = 0.00518035 W
                Subthreshold Leakage = 0.000138424 W
                Gate Leakage = 1.04998e-06 W
                Runtime Dynamic = 0.00351533 W

              Floating Point RF:
                Area = 0.00619155 mm^2
                Peak Dynamic = 0.0011337 W
                Subthreshold Leakage = 0.000138424 W
                Gate Leakage = 1.04998e-06 W
                Runtime Dynamic = 9.4283e-12 W

          Instruction Scheduler:
            Area = 0.00449853 mm^2
            Peak Dynamic = 0.00513088 W
            Subthreshold Leakage = 0.000298376 W
            Gate Leakage = 3.10534e-06 W
            Runtime Dynamic = 0.0063138 W

              Instruction Window:
                Area = 0.00449853 mm^2
                Peak Dynamic = 0.00513088 W
                Subthreshold Leakage = 0.000298376 W
                Gate Leakage = 3.10534e-06 W
                Runtime Dynamic = 0.0063138 W

          Integer ALUs (Count: 1 ):
            Area = 0.0384544 mm^2
            Peak Dynamic = 0.0292515 W
            Subthreshold Leakage = 0.00667865 W
            Gate Leakage = 6.39207e-05 W
            Runtime Dynamic = 0.0123598 W

          Floating Point Units (FPUs) (Count: 1 ):
            Area = 0.55672 mm^2
            Peak Dynamic = 0 W
            Subthreshold Leakage = 0.0241724 W
            Gate Leakage = 0.000231351 W
            Runtime Dynamic = 0 W

          Complex ALUs (Mul/Div) (Count: 1 ):
            Area = 0.115363 mm^2
            Peak Dynamic = 0.00300633 W
            Subthreshold Leakage = 0.020036 W
            Gate Leakage = 0.000191762 W
            Runtime Dynamic = 0.000500034 W

          Results Broadcast Bus:
            Area Overhead = 0.00454296 mm^2
            Peak Dynamic = 0.0173057 W
            Subthreshold Leakage = 0.00467933 W
            Gate Leakage = 4.47854e-05 W
            Runtime Dynamic = 0.00341662 W

*****************************************************************************************
L2
      Area = 0.396191 mm^2
      Peak Dynamic = 0.0264091 W
      Subthreshold Leakage = 0.0268919 W
      Gate Leakage = 7.03005e-05 W
      Runtime Dynamic = 0.00183384 W

*****************************************************************************************
Memory Controller:
      Area = 0.325032 mm^2
      Peak Dynamic = 0.401869 W
      Subthreshold Leakage = 0.00420039 W
      Gate Leakage = 4.04871e-05 W
      Runtime Dynamic = 0.06092 W

      Front End Engine:
        Area = 0.0332122 mm^2
        Peak Dynamic = 0.0573629 W
        Subthreshold Leakage = 0.0015 W
        Gate Leakage = 1.38079e-05 W
        Runtime Dynamic = 0.00693588 W

      Transaction Engine:
        Area = 0.187693 mm^2
        Peak Dynamic = 0.309348 W
        Subthreshold Leakage = 0.00173684 W
        Gate Leakage = 1.71595e-05 W
        Runtime Dynamic = 0.0373482 W

      PHY:
        Area = 0.104127 mm^2
        Peak Dynamic = 0.0351583 W
        Subthreshold Leakage = 0.000963549 W
        Gate Leakage = 9.51962e-06 W
        Runtime Dynamic = 0.0166359 W

*****************************************************************************************
BUSES
      Area = 0.0790939 mm^2
      Peak Dynamic = 0.102698 W
      Subthreshold Leakage = 0.0078612 W
      Gate Leakage = 7.76667e-05 W
      Runtime Dynamic = 0.0026061 W

      Bus: 
        Area = 0.00108348 mm^2
        Peak Dynamic = 0.00140682 W
        Subthreshold Leakage = 0.000107688 W
        Gate Leakage = 1.06393e-06 W
        Runtime Dynamic = 0.0026061 W

*****************************************************************************************
